/*--------------------------------*- C++ -*----------------------------------*\
  =========                 |
  \\      /  F ield         | OpenFOAM: The Open Source CFD Toolbox
   \\    /   O peration     | Website:  https://openfoam.org
    \\  /    A nd           | Version:  12
     \\/     M anipulation  |
\*---------------------------------------------------------------------------*/
FoamFile
{
    format      binary;
    class       polyBoundaryMesh;
    location    "constant/polyMesh";
    object      boundary;
}
// * * * * * * * * * * * * * * * * * * * * * * * * * * * * * * * * * * * * * //

12
(
    enclosure
    {
        type            patch;
        nFaces          0;
        startFace       1514959;
    }
    beamWalls
    {
        type            wall;
        inGroups        List<word> 1(wall);
        nFaces          104171;
        startFace       1514959;
    }
    beamFrontOpening
    {
        type            patch;
        nFaces          0;
        startFace       1619130;
    }
    beamBackOpening
    {
        type            patch;
        nFaces          0;
        startFace       1619130;
    }
    beamHoles
    {
        type            patch;
        nFaces          1671;
        startFace       1619130;
    }
    procBoundary9to0
    {
        type            processor;
        inGroups        List<word> 1(processor);
        nFaces          34;
        startFace       1620801;
        matchTolerance  0.0001;
        myProcNo        9;
        neighbProcNo    0;
    }
    procBoundary9to1
    {
        type            processor;
        inGroups        List<word> 1(processor);
        nFaces          1639;
        startFace       1620835;
        matchTolerance  0.0001;
        myProcNo        9;
        neighbProcNo    1;
    }
    procBoundary9to2
    {
        type            processor;
        inGroups        List<word> 1(processor);
        nFaces          1366;
        startFace       1622474;
        matchTolerance  0.0001;
        myProcNo        9;
        neighbProcNo    2;
    }
    procBoundary9to3
    {
        type            processor;
        inGroups        List<word> 1(processor);
        nFaces          1761;
        startFace       1623840;
        matchTolerance  0.0001;
        myProcNo        9;
        neighbProcNo    3;
    }
    procBoundary9to4
    {
        type            processor;
        inGroups        List<word> 1(processor);
        nFaces          2733;
        startFace       1625601;
        matchTolerance  0.0001;
        myProcNo        9;
        neighbProcNo    4;
    }
    procBoundary9to7
    {
        type            processor;
        inGroups        List<word> 1(processor);
        nFaces          9994;
        startFace       1628334;
        matchTolerance  0.0001;
        myProcNo        9;
        neighbProcNo    7;
    }
    procBoundary9to8
    {
        type            processor;
        inGroups        List<word> 1(processor);
        nFaces          125;
        startFace       1638328;
        matchTolerance  0.0001;
        myProcNo        9;
        neighbProcNo    8;
    }
)

// ************************************************************************* //
