/*--------------------------------*- C++ -*----------------------------------*\
  =========                 |
  \\      /  F ield         | OpenFOAM: The Open Source CFD Toolbox
   \\    /   O peration     | Website:  https://openfoam.org
    \\  /    A nd           | Version:  12
     \\/     M anipulation  |
\*---------------------------------------------------------------------------*/
FoamFile
{
    format      binary;
    class       polyBoundaryMesh;
    location    "constant/polyMesh";
    object      boundary;
}
// * * * * * * * * * * * * * * * * * * * * * * * * * * * * * * * * * * * * * //

15
(
    enclosure
    {
        type            patch;
        nFaces          24663;
        startFace       1476077;
    }
    beamWalls
    {
        type            wall;
        inGroups        List<word> 1(wall);
        nFaces          0;
        startFace       1500740;
    }
    beamFrontOpening
    {
        type            patch;
        nFaces          0;
        startFace       1500740;
    }
    beamBackOpening
    {
        type            patch;
        nFaces          0;
        startFace       1500740;
    }
    beamHoles
    {
        type            patch;
        nFaces          0;
        startFace       1500740;
    }
    procBoundary0to1
    {
        type            processor;
        inGroups        List<word> 1(processor);
        nFaces          1105;
        startFace       1500740;
        matchTolerance  0.0001;
        myProcNo        0;
        neighbProcNo    1;
    }
    procBoundary0to2
    {
        type            processor;
        inGroups        List<word> 1(processor);
        nFaces          845;
        startFace       1501845;
        matchTolerance  0.0001;
        myProcNo        0;
        neighbProcNo    2;
    }
    procBoundary0to3
    {
        type            processor;
        inGroups        List<word> 1(processor);
        nFaces          170;
        startFace       1502690;
        matchTolerance  0.0001;
        myProcNo        0;
        neighbProcNo    3;
    }
    procBoundary0to4
    {
        type            processor;
        inGroups        List<word> 1(processor);
        nFaces          6422;
        startFace       1502860;
        matchTolerance  0.0001;
        myProcNo        0;
        neighbProcNo    4;
    }
    procBoundary0to5
    {
        type            processor;
        inGroups        List<word> 1(processor);
        nFaces          787;
        startFace       1509282;
        matchTolerance  0.0001;
        myProcNo        0;
        neighbProcNo    5;
    }
    procBoundary0to7
    {
        type            processor;
        inGroups        List<word> 1(processor);
        nFaces          1764;
        startFace       1510069;
        matchTolerance  0.0001;
        myProcNo        0;
        neighbProcNo    7;
    }
    procBoundary0to8
    {
        type            processor;
        inGroups        List<word> 1(processor);
        nFaces          9900;
        startFace       1511833;
        matchTolerance  0.0001;
        myProcNo        0;
        neighbProcNo    8;
    }
    procBoundary0to9
    {
        type            processor;
        inGroups        List<word> 1(processor);
        nFaces          34;
        startFace       1521733;
        matchTolerance  0.0001;
        myProcNo        0;
        neighbProcNo    9;
    }
    procBoundary0to10
    {
        type            processor;
        inGroups        List<word> 1(processor);
        nFaces          103;
        startFace       1521767;
        matchTolerance  0.0001;
        myProcNo        0;
        neighbProcNo    10;
    }
    procBoundary0to11
    {
        type            processor;
        inGroups        List<word> 1(processor);
        nFaces          2257;
        startFace       1521870;
        matchTolerance  0.0001;
        myProcNo        0;
        neighbProcNo    11;
    }
)

// ************************************************************************* //
