/*--------------------------------*- C++ -*----------------------------------*\
| =========                 |                                                 |
| \\      /  F ield         | OpenFOAM: The Open Source CFD Toolbox           |
|  \\    /   O peration     | Version:  v2312                                 |
|   \\  /    A nd           | Website:  www.openfoam.com                      |
|    \\/     M anipulation  |                                                 |
\*---------------------------------------------------------------------------*/
FoamFile
{
    version     2.0;
    format      ascii;
    class       dictionary;
    object      fvSolution;
}
// * * * * * * * * * * * * * * * * * * * * * * * * * * * * * * * * * * * * * //

solvers
{
    p
    {
        solver          GAMG;
        tolerance       1e-7;
        relTol          0.01;
        smoother        GaussSeidel;
        nCellsInCoarsestLevel 20;
    }
    
    "(U|e|k|epsilon)"
    {
        solver          smoothSolver;
        smoother        symGaussSeidel;
        tolerance       1e-8;
        relTol          0.1;
    }
}

SIMPLE
{
    nNonOrthogonalCorrectors 0;
    consistent      yes;
    
    residualControl
    {
        p               1e-5;
        U               1e-5;
        e               1e-5;
        "(k|epsilon)"   1e-5;
    }
}

relaxationFactors
{
    fields
    {
        p               0.3;
        rho             0.05;
    }
    equations
    {
        U               0.7;
        e               0.7;
        k               0.7;
        epsilon         0.7;
    }
}

// ************************************************************************* //
