/*--------------------------------*- C++ -*----------------------------------*\
  =========                 |
  \\      /  F ield         | OpenFOAM: The Open Source CFD Toolbox
   \\    /   O peration     | Website:  https://openfoam.org
    \\  /    A nd           | Version:  12
     \\/     M anipulation  |
\*---------------------------------------------------------------------------*/
FoamFile
{
    format      binary;
    class       polyBoundaryMesh;
    location    "constant/polyMesh";
    object      boundary;
}
// * * * * * * * * * * * * * * * * * * * * * * * * * * * * * * * * * * * * * //

11
(
    enclosure
    {
        type            patch;
        nFaces          19535;
        startFace       1484004;
    }
    beamWalls
    {
        type            wall;
        inGroups        List<word> 1(wall);
        nFaces          0;
        startFace       1503539;
    }
    beamFrontOpening
    {
        type            patch;
        nFaces          0;
        startFace       1503539;
    }
    beamBackOpening
    {
        type            patch;
        nFaces          0;
        startFace       1503539;
    }
    beamHoles
    {
        type            patch;
        nFaces          0;
        startFace       1503539;
    }
    procBoundary4to0
    {
        type            processor;
        inGroups        List<word> 1(processor);
        nFaces          6422;
        startFace       1503539;
        matchTolerance  0.0001;
        myProcNo        4;
        neighbProcNo    0;
    }
    procBoundary4to1
    {
        type            processor;
        inGroups        List<word> 1(processor);
        nFaces          100;
        startFace       1509961;
        matchTolerance  0.0001;
        myProcNo        4;
        neighbProcNo    1;
    }
    procBoundary4to2
    {
        type            processor;
        inGroups        List<word> 1(processor);
        nFaces          12802;
        startFace       1510061;
        matchTolerance  0.0001;
        myProcNo        4;
        neighbProcNo    2;
    }
    procBoundary4to7
    {
        type            processor;
        inGroups        List<word> 1(processor);
        nFaces          2186;
        startFace       1522863;
        matchTolerance  0.0001;
        myProcNo        4;
        neighbProcNo    7;
    }
    procBoundary4to8
    {
        type            processor;
        inGroups        List<word> 1(processor);
        nFaces          5560;
        startFace       1525049;
        matchTolerance  0.0001;
        myProcNo        4;
        neighbProcNo    8;
    }
    procBoundary4to9
    {
        type            processor;
        inGroups        List<word> 1(processor);
        nFaces          2733;
        startFace       1530609;
        matchTolerance  0.0001;
        myProcNo        4;
        neighbProcNo    9;
    }
)

// ************************************************************************* //
